LTspice 24.0.12 for Windows
Circuit: * C:\Users\junso\OneDrive\22_Development\34_pico_synth\PWM_filter.asc
Start Time: Sat Jul 13 17:27:21 2024
solver = Normal
Maximum thread count: 16
tnom = 27
temp = 27
method = modified trap
Limiting rise time of source v1 to 8.16672e-07
Limiting fall time of source v1 to 8.16672e-07
.OP point found by inspection.
Total elapsed time: 0.035 seconds.

